MODEL 1
REMARK VINA RESULT:   -13.226      0.000      0.000
REMARK INTER + INTRA:         -19.126
REMARK INTER:                 -18.674
REMARK INTRA:                  -0.452
REMARK UNBOUND:                -0.488
REMARK Flexibility Score: inf
REMARK Active torsions [ 7 ] -> [ 7 ]
ROOT
ATOM      1  C1  LIG L   1      15.832  54.715  12.391  1.00  0.00     0.038 A 
ATOM      2  C2  LIG L   1      16.907  54.553  11.405  1.00  0.00    -0.029 A 
ATOM      3  C3  LIG L   1      17.886  53.528  11.631  1.00  0.00     0.007 A 
ATOM      4  C4  LIG L   1      17.809  52.682  12.796  1.00  0.00     0.024 A 
ATOM      5  C5  LIG L   1      16.764  52.834  13.754  1.00  0.00     0.035 A 
ATOM      6  C6  LIG L   1      15.771  53.873  13.531  1.00  0.00     0.047 A 
ATOM      7  C7  LIG L   1      17.036  55.426  10.135  1.00  0.00     0.045 C 
ENDROOT
BRANCH    1    8
ATOM      8  N1  LIG L   1      14.852  55.696  12.227  1.00  0.00    -0.283 N 
ATOM      9  H1  LIG L   1      13.975  55.450  11.852  1.00  0.00     0.155 HD
BRANCH    8   10
ATOM     10  C8  LIG L   1      15.100  57.012  12.585  1.00  0.00     0.220 A 
ATOM     11  C9  LIG L   1      14.272  59.240  12.744  1.00  0.00     0.077 A 
ATOM     12 C10  LIG L   1      15.527  59.694  13.269  1.00  0.00     0.048 A 
ATOM     13  N2  LIG L   1      14.107  57.911  12.423  1.00  0.00    -0.214 NA
ATOM     14 C11  LIG L   1      16.550  58.732  13.430  1.00  0.00     0.116 A 
ATOM     15  N3  LIG L   1      16.323  57.417  13.088  1.00  0.00    -0.223 NA
BRANCH   11   16
ATOM     16 C12  LIG L   1      13.096  60.137  12.513  1.00  0.00     0.019 A 
ATOM     17 C13  LIG L   1      11.822  62.288  12.857  1.00  0.00     0.020 A 
ATOM     18 C14  LIG L   1      12.979  61.461  13.113  1.00  0.00     0.013 A 
ATOM     19 C15  LIG L   1      10.790  61.770  11.998  1.00  0.00     0.111 A 
ATOM     20  N4  LIG L   1      10.914  60.495  11.425  1.00  0.00    -0.263 NA
ATOM     21 C16  LIG L   1      12.017  59.677  11.652  1.00  0.00     0.120 A 
ENDBRANCH   11   16
ENDBRANCH    8   10
ENDBRANCH    1    8
BRANCH    5   22
ATOM     22  N5  LIG L   1      16.748  51.945  14.888  1.00  0.00    -0.281 N 
ATOM     23 C17  LIG L   1      15.726  51.748  15.802  1.00  0.00     0.248 C 
ATOM     24  H2  LIG L   1      17.564  51.412  15.031  1.00  0.00     0.155 HD
ATOM     25  O1  LIG L   1      14.744  52.469  15.907  1.00  0.00    -0.270 OA
BRANCH   23   26
ATOM     26 C18  LIG L   1      15.813  50.592  16.746  1.00  0.00     0.037 A 
ATOM     27 C19  LIG L   1      17.074  49.875  16.954  1.00  0.00     0.013 A 
ATOM     28 C20  LIG L   1      14.622  50.175  17.455  1.00  0.00     0.013 A 
ATOM     29 C21  LIG L   1      17.126  48.752  17.857  1.00  0.00     0.002 A 
ATOM     30 C22  LIG L   1      14.678  49.075  18.340  1.00  0.00     0.002 A 
ATOM     31 C23  LIG L   1      15.914  48.342  18.561  1.00  0.00    -0.064 A 
BRANCH   31   32
ATOM     32 C24  LIG L   1      15.873  47.143  19.527  1.00  0.00    -0.043 C 
BRANCH   32   33
ATOM     33  N6  LIG L   1      17.142  46.786  20.228  1.00  0.00     0.380 N 
ATOM     34 C25  LIG L   1      17.461  47.802  21.297  1.00  0.00    -0.097 C 
ATOM     35 C26  LIG L   1      17.087  45.382  20.836  1.00  0.00    -0.097 C 
ATOM     36  H3  LIG L   1      17.884  46.792  19.528  1.00  0.00    -0.082 HD
ATOM     37 C27  LIG L   1      18.790  47.460  22.026  1.00  0.00    -0.098 C 
ATOM     38 C28  LIG L   1      18.431  45.016  21.546  1.00  0.00    -0.098 C 
ATOM     39  N7  LIG L   1      18.737  46.060  22.622  1.00  0.00     0.375 N 
ATOM     40 C29  LIG L   1      19.970  45.688  23.331  1.00  0.00    -0.096 C 
ATOM     41  H4  LIG L   1      17.982  46.079  23.308  1.00  0.00    -0.082 HD
ENDBRANCH   32   33
ENDBRANCH   31   32
ENDBRANCH   23   26
ENDBRANCH    5   22
TORSDOF 7
ENDMDL
MODEL 2
REMARK VINA RESULT:   -11.234      2.994     12.416
REMARK INTER + INTRA:         -16.320
REMARK INTER:                 -15.351
REMARK INTRA:                  -0.968
REMARK UNBOUND:                -0.488
REMARK Flexibility Score: inf
REMARK Active torsions [ 7 ] -> [ 7 ]
ROOT
ATOM      1  C1  LIG L   1      16.842  48.695  17.620  1.00  0.00     0.038 A 
ATOM      2  C2  LIG L   1      15.518  48.411  18.188  1.00  0.00    -0.029 A 
ATOM      3  C3  LIG L   1      14.457  49.343  17.933  1.00  0.00     0.007 A 
ATOM      4  C4  LIG L   1      14.689  50.523  17.137  1.00  0.00     0.024 A 
ATOM      5  C5  LIG L   1      15.972  50.800  16.581  1.00  0.00     0.035 A 
ATOM      6  C6  LIG L   1      17.053  49.860  16.839  1.00  0.00     0.047 A 
ATOM      7  C7  LIG L   1      15.210  47.159  19.042  1.00  0.00     0.045 C 
ENDROOT
BRANCH    1    8
ATOM      8  N1  LIG L   1      17.915  47.828  17.836  1.00  0.00    -0.283 N 
ATOM      9  H1  LIG L   1      17.967  46.983  17.332  1.00  0.00     0.155 HD
BRANCH    8   10
ATOM     10  C8  LIG L   1      18.907  48.142  18.751  1.00  0.00     0.220 A 
ATOM     11  C9  LIG L   1      20.930  49.320  19.195  1.00  0.00     0.077 A 
ATOM     12 C10  LIG L   1      20.960  48.812  20.536  1.00  0.00     0.048 A 
ATOM     13  N2  LIG L   1      19.899  48.966  18.353  1.00  0.00    -0.214 NA
ATOM     14 C11  LIG L   1      19.908  47.953  20.928  1.00  0.00     0.116 A 
ATOM     15  N3  LIG L   1      18.907  47.633  20.037  1.00  0.00    -0.223 NA
BRANCH   11   16
ATOM     16 C12  LIG L   1      21.972  50.236  18.631  1.00  0.00     0.019 A 
ATOM     17 C13  LIG L   1      24.202  50.683  17.539  1.00  0.00     0.020 A 
ATOM     18 C14  LIG L   1      23.229  49.756  18.072  1.00  0.00     0.013 A 
ATOM     19 C15  LIG L   1      23.897  52.089  17.579  1.00  0.00     0.111 A 
ATOM     20  N4  LIG L   1      22.683  52.539  18.118  1.00  0.00    -0.263 NA
ATOM     21 C16  LIG L   1      21.727  51.670  18.636  1.00  0.00     0.120 A 
ENDBRANCH   11   16
ENDBRANCH    8   10
ENDBRANCH    1    8
BRANCH    5   22
ATOM     22  N5  LIG L   1      16.125  51.995  15.789  1.00  0.00    -0.281 N 
ATOM     23 C17  LIG L   1      15.658  52.232  14.507  1.00  0.00     0.248 C 
ATOM     24  H2  LIG L   1      16.623  52.732  16.212  1.00  0.00     0.155 HD
ATOM     25  O1  LIG L   1      15.218  51.370  13.761  1.00  0.00    -0.270 OA
BRANCH   23   26
ATOM     26 C18  LIG L   1      15.697  53.627  13.971  1.00  0.00     0.037 A 
ATOM     27 C19  LIG L   1      16.968  54.326  13.766  1.00  0.00     0.013 A 
ATOM     28 C20  LIG L   1      14.451  54.294  13.662  1.00  0.00     0.013 A 
ATOM     29 C21  LIG L   1      16.977  55.677  13.263  1.00  0.00     0.002 A 
ATOM     30 C22  LIG L   1      14.463  55.618  13.169  1.00  0.00     0.002 A 
ATOM     31 C23  LIG L   1      15.709  56.337  12.961  1.00  0.00    -0.064 A 
BRANCH   31   32
ATOM     32 C24  LIG L   1      15.623  57.785  12.441  1.00  0.00    -0.043 C 
BRANCH   32   33
ATOM     33  N6  LIG L   1      14.342  58.518  12.669  1.00  0.00     0.380 N 
ATOM     34 C25  LIG L   1      14.612  59.900  13.210  1.00  0.00    -0.097 C 
ATOM     35 C26  LIG L   1      13.497  58.607  11.395  1.00  0.00    -0.097 C 
ATOM     36  H3  LIG L   1      13.810  57.985  13.357  1.00  0.00    -0.082 HD
ATOM     37 C27  LIG L   1      13.289  60.673  13.474  1.00  0.00    -0.098 C 
ATOM     38 C28  LIG L   1      12.151  59.358  11.657  1.00  0.00    -0.098 C 
ATOM     39  N7  LIG L   1      12.447  60.753  12.209  1.00  0.00     0.375 N 
ATOM     40 C29  LIG L   1      11.185  61.482  12.402  1.00  0.00    -0.096 C 
ATOM     41  H4  LIG L   1      13.005  61.278  11.536  1.00  0.00    -0.082 HD
ENDBRANCH   32   33
ENDBRANCH   31   32
ENDBRANCH   23   26
ENDBRANCH    5   22
TORSDOF 7
ENDMDL
MODEL 3
REMARK VINA RESULT:   -11.043      3.920     12.293
REMARK INTER + INTRA:         -16.049
REMARK INTER:                 -15.153
REMARK INTRA:                  -0.896
REMARK UNBOUND:                -0.488
REMARK Flexibility Score: inf
REMARK Active torsions [ 7 ] -> [ 7 ]
ROOT
ATOM      1  C1  LIG L   1      18.501  48.594  19.034  1.00  0.00     0.038 A 
ATOM      2  C2  LIG L   1      17.542  47.500  19.227  1.00  0.00    -0.029 A 
ATOM      3  C3  LIG L   1      16.376  47.466  18.390  1.00  0.00     0.007 A 
ATOM      4  C4  LIG L   1      16.160  48.480  17.388  1.00  0.00     0.024 A 
ATOM      5  C5  LIG L   1      17.092  49.542  17.196  1.00  0.00     0.035 A 
ATOM      6  C6  LIG L   1      18.274  49.583  18.043  1.00  0.00     0.047 A 
ATOM      7  C7  LIG L   1      17.725  46.383  20.280  1.00  0.00     0.045 C 
ENDROOT
BRANCH    1    8
ATOM      8  N1  LIG L   1      19.653  48.683  19.820  1.00  0.00    -0.283 N 
ATOM      9  H1  LIG L   1      19.574  48.901  20.777  1.00  0.00     0.155 HD
BRANCH    8   10
ATOM     10  C8  LIG L   1      20.906  48.467  19.267  1.00  0.00     0.220 A 
ATOM     11  C9  LIG L   1      22.891  49.419  18.358  1.00  0.00     0.077 A 
ATOM     12 C10  LIG L   1      23.440  48.114  18.127  1.00  0.00     0.048 A 
ATOM     13  N2  LIG L   1      21.641  49.544  18.923  1.00  0.00    -0.214 NA
ATOM     14 C11  LIG L   1      22.650  47.003  18.498  1.00  0.00     0.116 A 
ATOM     15  N3  LIG L   1      21.405  47.195  19.056  1.00  0.00    -0.223 NA
BRANCH   11   16
ATOM     16 C12  LIG L   1      23.603  50.691  18.016  1.00  0.00     0.019 A 
ATOM     17 C13  LIG L   1      25.210  52.050  16.626  1.00  0.00     0.020 A 
ATOM     18 C14  LIG L   1      24.550  50.798  16.913  1.00  0.00     0.013 A 
ATOM     19 C15  LIG L   1      24.911  53.186  17.457  1.00  0.00     0.111 A 
ATOM     20  N4  LIG L   1      23.997  53.072  18.515  1.00  0.00    -0.263 NA
ATOM     21 C16  LIG L   1      23.344  51.880  18.815  1.00  0.00     0.120 A 
ENDBRANCH   11   16
ENDBRANCH    8   10
ENDBRANCH    1    8
BRANCH    5   22
ATOM     22  N5  LIG L   1      16.812  50.513  16.168  1.00  0.00    -0.281 N 
ATOM     23 C17  LIG L   1      15.696  51.325  16.045  1.00  0.00     0.248 C 
ATOM     24  H2  LIG L   1      17.498  50.611  15.468  1.00  0.00     0.155 HD
ATOM     25  O1  LIG L   1      14.666  51.186  16.687  1.00  0.00    -0.270 OA
BRANCH   23   26
ATOM     26 C18  LIG L   1      15.724  52.444  15.055  1.00  0.00     0.037 A 
ATOM     27 C19  LIG L   1      16.761  52.521  14.023  1.00  0.00     0.013 A 
ATOM     28 C20  LIG L   1      14.709  53.474  15.133  1.00  0.00     0.013 A 
ATOM     29 C21  LIG L   1      16.774  53.620  13.091  1.00  0.00     0.002 A 
ATOM     30 C22  LIG L   1      14.725  54.549  14.217  1.00  0.00     0.002 A 
ATOM     31 C23  LIG L   1      15.745  54.653  13.186  1.00  0.00    -0.064 A 
BRANCH   31   32
ATOM     32 C24  LIG L   1      15.694  55.873  12.248  1.00  0.00    -0.043 C 
BRANCH   32   33
ATOM     33  N6  LIG L   1      14.976  57.085  12.741  1.00  0.00     0.380 N 
ATOM     34 C25  LIG L   1      15.914  58.266  12.811  1.00  0.00    -0.097 C 
ATOM     35 C26  LIG L   1      13.763  57.428  11.871  1.00  0.00    -0.097 C 
ATOM     36  H3  LIG L   1      14.635  56.872  13.678  1.00  0.00    -0.082 HD
ATOM     37 C27  LIG L   1      15.190  59.534  13.342  1.00  0.00    -0.098 C 
ATOM     38 C28  LIG L   1      13.011  58.686  12.414  1.00  0.00    -0.098 C 
ATOM     39  N7  LIG L   1      13.980  59.868  12.482  1.00  0.00     0.375 N 
ATOM     40 C29  LIG L   1      13.261  61.067  12.937  1.00  0.00    -0.096 C 
ATOM     41  H4  LIG L   1      14.347  60.065  11.550  1.00  0.00    -0.082 HD
ENDBRANCH   32   33
ENDBRANCH   31   32
ENDBRANCH   23   26
ENDBRANCH    5   22
TORSDOF 7
ENDMDL
MODEL 4
REMARK VINA RESULT:   -10.996      1.490      1.997
REMARK INTER + INTRA:         -15.984
REMARK INTER:                 -16.211
REMARK INTRA:                   0.227
REMARK UNBOUND:                -0.488
REMARK Flexibility Score: inf
REMARK Active torsions [ 7 ] -> [ 7 ]
ROOT
ATOM      1  C1  LIG L   1      15.750  54.626  12.674  1.00  0.00     0.038 A 
ATOM      2  C2  LIG L   1      16.819  54.330  11.714  1.00  0.00    -0.029 A 
ATOM      3  C3  LIG L   1      17.749  53.285  12.035  1.00  0.00     0.007 A 
ATOM      4  C4  LIG L   1      17.628  52.548  13.268  1.00  0.00     0.024 A 
ATOM      5  C5  LIG L   1      16.589  52.830  14.201  1.00  0.00     0.035 A 
ATOM      6  C6  LIG L   1      15.645  53.890  13.882  1.00  0.00     0.047 A 
ATOM      7  C7  LIG L   1      16.993  55.083  10.374  1.00  0.00     0.045 C 
ENDROOT
BRANCH    1    8
ATOM      8  N1  LIG L   1      14.816  55.633  12.418  1.00  0.00    -0.283 N 
ATOM      9  H1  LIG L   1      13.946  55.401  12.021  1.00  0.00     0.155 HD
BRANCH    8   10
ATOM     10  C8  LIG L   1      15.102  56.957  12.717  1.00  0.00     0.220 A 
ATOM     11  C9  LIG L   1      14.332  59.209  12.795  1.00  0.00     0.077 A 
ATOM     12 C10  LIG L   1      15.607  59.654  13.280  1.00  0.00     0.048 A 
ATOM     13  N2  LIG L   1      14.129  57.873  12.533  1.00  0.00    -0.214 NA
ATOM     14 C11  LIG L   1      16.608  58.674  13.465  1.00  0.00     0.116 A 
ATOM     15  N3  LIG L   1      16.343  57.351  13.182  1.00  0.00    -0.223 NA
BRANCH   11   16
ATOM     16 C12  LIG L   1      13.175  60.125  12.545  1.00  0.00     0.019 A 
ATOM     17 C13  LIG L   1      10.872  60.624  11.644  1.00  0.00     0.020 A 
ATOM     18 C14  LIG L   1      11.961  59.700  11.859  1.00  0.00     0.013 A 
ATOM     19 C15  LIG L   1      11.018  61.973  12.122  1.00  0.00     0.111 A 
ATOM     20  N4  LIG L   1      12.189  62.371  12.783  1.00  0.00    -0.263 NA
ATOM     21 C16  LIG L   1      13.254  61.503  13.006  1.00  0.00     0.120 A 
ENDBRANCH   11   16
ENDBRANCH    8   10
ENDBRANCH    1    8
BRANCH    5   22
ATOM     22  N5  LIG L   1      16.528  52.044  15.409  1.00  0.00    -0.281 N 
ATOM     23 C17  LIG L   1      15.686  50.981  15.691  1.00  0.00     0.248 C 
ATOM     24  H2  LIG L   1      17.162  52.294  16.119  1.00  0.00     0.155 HD
ATOM     25  O1  LIG L   1      14.706  50.679  15.025  1.00  0.00    -0.270 OA
BRANCH   23   26
ATOM     26 C18  LIG L   1      15.964  50.139  16.895  1.00  0.00     0.037 A 
ATOM     27 C19  LIG L   1      14.876  49.631  17.734  1.00  0.00     0.013 A 
ATOM     28 C20  LIG L   1      17.338  49.836  17.235  1.00  0.00     0.013 A 
ATOM     29 C21  LIG L   1      15.173  48.836  18.899  1.00  0.00     0.002 A 
ATOM     30 C22  LIG L   1      17.625  49.056  18.378  1.00  0.00     0.002 A 
ATOM     31 C23  LIG L   1      16.566  48.543  19.231  1.00  0.00    -0.064 A 
BRANCH   31   32
ATOM     32 C24  LIG L   1      16.976  47.720  20.466  1.00  0.00    -0.043 C 
BRANCH   32   33
ATOM     33  N6  LIG L   1      18.400  47.279  20.552  1.00  0.00     0.380 N 
ATOM     34 C25  LIG L   1      18.870  46.743  19.222  1.00  0.00    -0.097 C 
ATOM     35 C26  LIG L   1      19.324  48.407  21.021  1.00  0.00    -0.097 C 
ATOM     36  H3  LIG L   1      18.442  46.535  21.248  1.00  0.00    -0.082 HD
ATOM     37 C27  LIG L   1      20.345  46.258  19.295  1.00  0.00    -0.098 C 
ATOM     38 C28  LIG L   1      20.806  47.922  21.126  1.00  0.00    -0.098 C 
ATOM     39  N7  LIG L   1      21.260  47.378  19.770  1.00  0.00     0.375 N 
ATOM     40 C29  LIG L   1      22.671  46.975  19.851  1.00  0.00    -0.096 C 
ATOM     41  H4  LIG L   1      21.190  48.112  19.065  1.00  0.00    -0.082 HD
ENDBRANCH   32   33
ENDBRANCH   31   32
ENDBRANCH   23   26
ENDBRANCH    5   22
TORSDOF 7
ENDMDL
MODEL 5
REMARK VINA RESULT:   -10.753      3.560     12.419
REMARK INTER + INTRA:         -15.642
REMARK INTER:                 -15.153
REMARK INTRA:                  -0.488
REMARK UNBOUND:                -0.488
REMARK Flexibility Score: inf
REMARK Active torsions [ 7 ] -> [ 7 ]
ROOT
ATOM      1  C1  LIG L   1      17.731  48.560  18.893  1.00  0.00     0.038 A 
ATOM      2  C2  LIG L   1      16.576  47.657  18.971  1.00  0.00    -0.029 A 
ATOM      3  C3  LIG L   1      15.508  47.839  18.030  1.00  0.00     0.007 A 
ATOM      4  C4  LIG L   1      15.575  48.880  17.034  1.00  0.00     0.024 A 
ATOM      5  C5  LIG L   1      16.696  49.756  16.953  1.00  0.00     0.035 A 
ATOM      6  C6  LIG L   1      17.780  49.578  17.907  1.00  0.00     0.047 A 
ATOM      7  C7  LIG L   1      16.454  46.520  20.012  1.00  0.00     0.045 C 
ENDROOT
BRANCH    1    8
ATOM      8  N1  LIG L   1      18.799  48.434  19.783  1.00  0.00    -0.283 N 
ATOM      9  H1  LIG L   1      18.663  48.632  20.738  1.00  0.00     0.155 HD
BRANCH    8   10
ATOM     10  C8  LIG L   1      20.050  48.035  19.337  1.00  0.00     0.220 A 
ATOM     11  C9  LIG L   1      22.286  48.659  18.803  1.00  0.00     0.077 A 
ATOM     12 C10  LIG L   1      22.598  47.310  18.428  1.00  0.00     0.048 A 
ATOM     13  N2  LIG L   1      21.019  48.969  19.247  1.00  0.00    -0.214 NA
ATOM     14 C11  LIG L   1      21.566  46.352  18.533  1.00  0.00     0.116 A 
ATOM     15  N3  LIG L   1      20.317  46.725  18.982  1.00  0.00    -0.223 NA
BRANCH   11   16
ATOM     16 C12  LIG L   1      23.270  49.786  18.744  1.00  0.00     0.019 A 
ATOM     17 C13  LIG L   1      24.720  51.547  19.820  1.00  0.00     0.020 A 
ATOM     18 C14  LIG L   1      23.770  50.464  19.933  1.00  0.00     0.013 A 
ATOM     19 C15  LIG L   1      25.156  51.938  18.506  1.00  0.00     0.111 A 
ATOM     20  N4  LIG L   1      24.669  51.277  17.368  1.00  0.00    -0.263 NA
ATOM     21 C16  LIG L   1      23.755  50.230  17.446  1.00  0.00     0.120 A 
ENDBRANCH   11   16
ENDBRANCH    8   10
ENDBRANCH    1    8
BRANCH    5   22
ATOM     22  N5  LIG L   1      16.694  50.767  15.925  1.00  0.00    -0.281 N 
ATOM     23 C17  LIG L   1      15.782  51.792  15.740  1.00  0.00     0.248 C 
ATOM     24  H2  LIG L   1      17.433  50.723  15.275  1.00  0.00     0.155 HD
ATOM     25  O1  LIG L   1      14.703  51.868  16.309  1.00  0.00    -0.270 OA
BRANCH   23   26
ATOM     26 C18  LIG L   1      16.108  52.884  14.774  1.00  0.00     0.037 A 
ATOM     27 C19  LIG L   1      17.257  53.769  14.986  1.00  0.00     0.013 A 
ATOM     28 C20  LIG L   1      15.261  53.071  13.615  1.00  0.00     0.013 A 
ATOM     29 C21  LIG L   1      17.540  54.825  14.046  1.00  0.00     0.002 A 
ATOM     30 C22  LIG L   1      15.542  54.107  12.696  1.00  0.00     0.002 A 
ATOM     31 C23  LIG L   1      16.671  55.002  12.885  1.00  0.00    -0.064 A 
BRANCH   31   32
ATOM     32 C24  LIG L   1      16.885  56.116  11.843  1.00  0.00    -0.043 C 
BRANCH   32   33
ATOM     33  N6  LIG L   1      16.036  57.338  11.964  1.00  0.00     0.380 N 
ATOM     34 C25  LIG L   1      14.591  56.960  12.180  1.00  0.00    -0.097 C 
ATOM     35 C26  LIG L   1      16.513  58.259  13.090  1.00  0.00    -0.097 C 
ATOM     36  H3  LIG L   1      16.121  57.851  11.087  1.00  0.00    -0.082 HD
ATOM     37 C27  LIG L   1      13.686  58.219  12.288  1.00  0.00    -0.098 C 
ATOM     38 C28  LIG L   1      15.627  59.544  13.189  1.00  0.00    -0.098 C 
ATOM     39  N7  LIG L   1      14.167  59.138  13.402  1.00  0.00     0.375 N 
ATOM     40 C29  LIG L   1      13.340  60.344  13.553  1.00  0.00    -0.096 C 
ATOM     41  H4  LIG L   1      14.083  58.598  14.264  1.00  0.00    -0.082 HD
ENDBRANCH   32   33
ENDBRANCH   31   32
ENDBRANCH   23   26
ENDBRANCH    5   22
TORSDOF 7
ENDMDL
