MODEL 1
REMARK VINA RESULT:   -13.055      0.000      0.000
REMARK INTER + INTRA:         -19.088
REMARK INTER:                 -18.611
REMARK INTRA:                  -0.477
REMARK UNBOUND:                -0.690
REMARK SMILES Cc1ccc(NC(=O)c2ccc(CN3CC[NH+](C)CC3)cc2)cc1Nc1nccc(-c2cccnc2)n1
REMARK SMILES IDX 24 1 2 2 3 3 4 4 5 5 23 6 1 7 25 8 26 10 30 11 29 12 37 13
REMARK SMILES IDX 28 14 27 15 31 16 33 17 32 18 34 19 35 20 36 21 6 22 7 23
REMARK SMILES IDX 8 25 9 26 10 27 22 28 11 29 21 30 12 31 13 32 14 33 15 34
REMARK SMILES IDX 20 35 16 36 19 37 17 38 18 39
REMARK H PARENT 25 9 6 24 17 40
REMARK Flexibility Score: inf
ROOT
ATOM      1  C   UNL     1      15.823  54.735  12.402  1.00  0.00     0.046 A 
ATOM      2  C   UNL     1      16.888  54.576  11.404  1.00  0.00    -0.027 A 
ATOM      3  C   UNL     1      17.871  53.553  11.619  1.00  0.00     0.008 A 
ATOM      4  C   UNL     1      17.808  52.705  12.783  1.00  0.00     0.026 A 
ATOM      5  C   UNL     1      16.773  52.854  13.752  1.00  0.00     0.043 A 
ATOM      6  C   UNL     1      15.775  53.891  13.541  1.00  0.00     0.052 A 
ATOM      7  C   UNL     1      17.001  55.451  10.134  1.00  0.00     0.046 C 
ENDROOT
BRANCH   1   8
ATOM      8  N   UNL     1      14.839  55.714  12.250  1.00  0.00    -0.324 N 
ATOM      9  H   UNL     1      13.918  55.456  11.868  1.00  0.00     0.170 HD
BRANCH   8  10
ATOM     10  C   UNL     1      15.089  57.031  12.606  1.00  0.00     0.227 A 
ATOM     11  C   UNL     1      14.269  59.263  12.749  1.00  0.00     0.077 A 
ATOM     12  C   UNL     1      15.521  59.714  13.284  1.00  0.00     0.049 A 
ATOM     13  N   UNL     1      14.101  57.933  12.432  1.00  0.00    -0.213 NA
ATOM     14  C   UNL     1      16.539  58.748  13.457  1.00  0.00     0.117 A 
ATOM     15  N   UNL     1      16.309  57.433  13.117  1.00  0.00    -0.221 NA
BRANCH  11  16
ATOM     16  C   UNL     1      13.098  60.163  12.505  1.00  0.00     0.019 A 
ATOM     17  C   UNL     1      11.879  62.359  12.742  1.00  0.00     0.021 A 
ATOM     18  C   UNL     1      13.032  61.530  13.007  1.00  0.00     0.013 A 
ATOM     19  C   UNL     1      10.798  61.799  11.974  1.00  0.00     0.111 A 
ATOM     20  N   UNL     1      10.874  60.482  11.495  1.00  0.00    -0.264 NA
ATOM     21  C   UNL     1      11.972  59.662  11.733  1.00  0.00     0.121 A 
ENDBRANCH  11  16
ENDBRANCH   8  10
ENDBRANCH   1   8
BRANCH   5  22
ATOM     22  N   UNL     1      16.771  51.963  14.886  1.00  0.00    -0.322 N 
ATOM     23  C   UNL     1      15.753  51.752  15.802  1.00  0.00     0.255 C 
ATOM     24  H   UNL     1      17.631  51.416  15.032  1.00  0.00     0.170 HD
ATOM     25  O   UNL     1      14.763  52.460  15.909  1.00  0.00    -0.269 OA
BRANCH  23  26
ATOM     26  C   UNL     1      15.857  50.596  16.744  1.00  0.00     0.040 A 
ATOM     27  C   UNL     1      17.115  49.863  16.911  1.00  0.00     0.014 A 
ATOM     28  C   UNL     1      14.685  50.194  17.492  1.00  0.00     0.014 A 
ATOM     29  C   UNL     1      17.183  48.742  17.813  1.00  0.00     0.006 A 
ATOM     30  C   UNL     1      14.756  49.095  18.376  1.00  0.00     0.006 A 
ATOM     31  C   UNL     1      15.989  48.347  18.557  1.00  0.00    -0.034 A 
BRANCH  31  32
ATOM     32  C   UNL     1      15.965  47.150  19.526  1.00  0.00     0.120 C 
BRANCH  32  33
ATOM     33  N   UNL     1      17.238  46.817  20.234  1.00  0.00    -0.288 NA
ATOM     34  C   UNL     1      17.514  47.819  21.328  1.00  0.00     0.146 C 
ATOM     35  C   UNL     1      17.220  45.399  20.811  1.00  0.00     0.146 C 
ATOM     36  C   UNL     1      18.846  47.503  22.064  1.00  0.00     0.277 C 
ATOM     37  C   UNL     1      18.567  45.060  21.529  1.00  0.00     0.277 C 
ATOM     38  N   UNL     1      18.829  46.089  22.629  1.00  0.00    -0.335 N 
ATOM     39  C   UNL     1      20.065  45.740  23.344  1.00  0.00     0.332 C 
ATOM     40  H   UNL     1      18.059  46.070  23.313  1.00  0.00     0.347 HD
ENDBRANCH  32  33
ENDBRANCH  31  32
ENDBRANCH  23  26
ENDBRANCH   5  22
TORSDOF 7
ENDMDL
MODEL 2
REMARK VINA RESULT:   -11.213      0.914      1.416
REMARK INTER + INTRA:         -16.492
REMARK INTER:                 -15.809
REMARK INTRA:                  -0.683
REMARK UNBOUND:                -0.690
REMARK SMILES Cc1ccc(NC(=O)c2ccc(CN3CC[NH+](C)CC3)cc2)cc1Nc1nccc(-c2cccnc2)n1
REMARK SMILES IDX 24 1 2 2 3 3 4 4 5 5 23 6 1 7 25 8 26 10 30 11 29 12 37 13
REMARK SMILES IDX 28 14 27 15 31 16 33 17 32 18 34 19 35 20 36 21 6 22 7 23
REMARK SMILES IDX 8 25 9 26 10 27 22 28 11 29 21 30 12 31 13 32 14 33 15 34
REMARK SMILES IDX 20 35 16 36 19 37 17 38 18 39
REMARK H PARENT 25 9 6 24 17 40
REMARK Flexibility Score: inf
ROOT
ATOM      1  C   UNL     1      16.382  55.556  12.885  1.00  0.00     0.046 A 
ATOM      2  C   UNL     1      16.992  55.147  11.614  1.00  0.00    -0.027 A 
ATOM      3  C   UNL     1      17.514  53.814  11.511  1.00  0.00     0.008 A 
ATOM      4  C   UNL     1      17.436  52.906  12.628  1.00  0.00     0.026 A 
ATOM      5  C   UNL     1      16.841  53.299  13.862  1.00  0.00     0.043 A 
ATOM      6  C   UNL     1      16.312  54.650  13.973  1.00  0.00     0.052 A 
ATOM      7  C   UNL     1      17.097  56.076  10.382  1.00  0.00     0.046 C 
ENDROOT
BRANCH   1   8
ATOM      8  N   UNL     1      15.858  56.841  13.047  1.00  0.00    -0.324 N 
ATOM      9  H   UNL     1      16.421  57.565  13.516  1.00  0.00     0.170 HD
BRANCH   8  10
ATOM     10  C   UNL     1      14.590  57.153  12.583  1.00  0.00     0.227 A 
ATOM     11  C   UNL     1      12.963  58.843  12.167  1.00  0.00     0.077 A 
ATOM     12  C   UNL     1      12.035  57.863  11.679  1.00  0.00     0.049 A 
ATOM     13  N   UNL     1      14.209  58.448  12.600  1.00  0.00    -0.213 NA
ATOM     14  C   UNL     1      12.460  56.516  11.670  1.00  0.00     0.117 A 
ATOM     15  N   UNL     1      13.719  56.184  12.120  1.00  0.00    -0.221 NA
BRANCH  11  16
ATOM     16  C   UNL     1      12.660  60.307  12.242  1.00  0.00     0.019 A 
ATOM     17  C   UNL     1      13.290  62.698  12.744  1.00  0.00     0.021 A 
ATOM     18  C   UNL     1      13.633  61.295  12.691  1.00  0.00     0.013 A 
ATOM     19  C   UNL     1      11.964  63.092  12.345  1.00  0.00     0.111 A 
ATOM     20  N   UNL     1      11.037  62.132  11.913  1.00  0.00    -0.264 NA
ATOM     21  C   UNL     1      11.339  60.775  11.850  1.00  0.00     0.121 A 
ENDBRANCH  11  16
ENDBRANCH   8  10
ENDBRANCH   1   8
BRANCH   5  22
ATOM     22  N   UNL     1      16.791  52.332  14.930  1.00  0.00    -0.322 N 
ATOM     23  C   UNL     1      15.700  51.974  15.705  1.00  0.00     0.255 C 
ATOM     24  H   UNL     1      17.675  51.848  15.143  1.00  0.00     0.170 HD
ATOM     25  O   UNL     1      14.645  52.589  15.739  1.00  0.00    -0.269 OA
BRANCH  23  26
ATOM     26  C   UNL     1      15.801  50.766  16.580  1.00  0.00     0.040 A 
ATOM     27  C   UNL     1      17.069  50.050  16.744  1.00  0.00     0.014 A 
ATOM     28  C   UNL     1      14.616  50.296  17.265  1.00  0.00     0.014 A 
ATOM     29  C   UNL     1      17.134  48.878  17.580  1.00  0.00     0.006 A 
ATOM     30  C   UNL     1      14.684  49.147  18.084  1.00  0.00     0.006 A 
ATOM     31  C   UNL     1      15.927  48.415  18.260  1.00  0.00    -0.034 A 
BRANCH  31  32
ATOM     32  C   UNL     1      15.900  47.161  19.155  1.00  0.00     0.120 C 
BRANCH  32  33
ATOM     33  N   UNL     1      17.120  46.874  19.966  1.00  0.00    -0.288 NA
ATOM     34  C   UNL     1      17.378  47.988  20.950  1.00  0.00     0.146 C 
ATOM     35  C   UNL     1      17.019  45.534  20.701  1.00  0.00     0.146 C 
ATOM     36  C   UNL     1      18.657  47.717  21.791  1.00  0.00     0.277 C 
ATOM     37  C   UNL     1      18.313  45.239  21.527  1.00  0.00     0.277 C 
ATOM     38  N   UNL     1      18.557  46.381  22.514  1.00  0.00    -0.335 N 
ATOM     39  C   UNL     1      19.741  46.079  23.332  1.00  0.00     0.332 C 
ATOM     40  H   UNL     1      17.753  46.467  23.152  1.00  0.00     0.347 HD
ENDBRANCH  32  33
ENDBRANCH  31  32
ENDBRANCH  23  26
ENDBRANCH   5  22
TORSDOF 7
ENDMDL
MODEL 3
REMARK VINA RESULT:   -11.054      2.979     12.432
REMARK INTER + INTRA:         -16.268
REMARK INTER:                 -15.301
REMARK INTRA:                  -0.967
REMARK UNBOUND:                -0.690
REMARK SMILES Cc1ccc(NC(=O)c2ccc(CN3CC[NH+](C)CC3)cc2)cc1Nc1nccc(-c2cccnc2)n1
REMARK SMILES IDX 24 1 2 2 3 3 4 4 5 5 23 6 1 7 25 8 26 10 30 11 29 12 37 13
REMARK SMILES IDX 28 14 27 15 31 16 33 17 32 18 34 19 35 20 36 21 6 22 7 23
REMARK SMILES IDX 8 25 9 26 10 27 22 28 11 29 21 30 12 31 13 32 14 33 15 34
REMARK SMILES IDX 20 35 16 36 19 37 17 38 18 39
REMARK H PARENT 25 9 6 24 17 40
REMARK Flexibility Score: inf
ROOT
ATOM      1  C   UNL     1      16.853  48.693  17.613  1.00  0.00     0.046 A 
ATOM      2  C   UNL     1      15.533  48.413  18.192  1.00  0.00    -0.027 A 
ATOM      3  C   UNL     1      14.472  49.346  17.942  1.00  0.00     0.008 A 
ATOM      4  C   UNL     1      14.701  50.523  17.141  1.00  0.00     0.026 A 
ATOM      5  C   UNL     1      15.981  50.796  16.575  1.00  0.00     0.043 A 
ATOM      6  C   UNL     1      17.061  49.855  16.827  1.00  0.00     0.052 A 
ATOM      7  C   UNL     1      15.228  47.164  19.052  1.00  0.00     0.046 C 
ENDROOT
BRANCH   1   8
ATOM      8  N   UNL     1      17.925  47.823  17.823  1.00  0.00    -0.324 N 
ATOM      9  H   UNL     1      17.987  46.949  17.281  1.00  0.00     0.170 HD
BRANCH   8  10
ATOM     10  C   UNL     1      18.908  48.122  18.754  1.00  0.00     0.227 A 
ATOM     11  C   UNL     1      20.919  49.303  19.243  1.00  0.00     0.077 A 
ATOM     12  C   UNL     1      20.941  48.763  20.571  1.00  0.00     0.049 A 
ATOM     13  N   UNL     1      19.898  48.961  18.384  1.00  0.00    -0.213 NA
ATOM     14  C   UNL     1      19.893  47.888  20.934  1.00  0.00     0.117 A 
ATOM     15  N   UNL     1      18.901  47.583  20.027  1.00  0.00    -0.221 NA
BRANCH  11  16
ATOM     16  C   UNL     1      21.959  50.238  18.709  1.00  0.00     0.019 A 
ATOM     17  C   UNL     1      24.182  50.725  17.621  1.00  0.00     0.021 A 
ATOM     18  C   UNL     1      23.211  49.779  18.121  1.00  0.00     0.013 A 
ATOM     19  C   UNL     1      23.882  52.129  17.720  1.00  0.00     0.111 A 
ATOM     20  N   UNL     1      22.672  52.559  18.287  1.00  0.00    -0.264 NA
ATOM     21  C   UNL     1      21.718  51.672  18.776  1.00  0.00     0.121 A 
ENDBRANCH  11  16
ENDBRANCH   8  10
ENDBRANCH   1   8
BRANCH   5  22
ATOM     22  N   UNL     1      16.130  51.988  15.779  1.00  0.00    -0.322 N 
ATOM     23  C   UNL     1      15.647  52.226  14.502  1.00  0.00     0.255 C 
ATOM     24  H   UNL     1      16.661  52.757  16.211  1.00  0.00     0.170 HD
ATOM     25  O   UNL     1      15.191  51.365  13.764  1.00  0.00    -0.269 OA
BRANCH  23  26
ATOM     26  C   UNL     1      15.688  53.619  13.963  1.00  0.00     0.040 A 
ATOM     27  C   UNL     1      16.959  54.322  13.769  1.00  0.00     0.014 A 
ATOM     28  C   UNL     1      14.443  54.283  13.639  1.00  0.00     0.014 A 
ATOM     29  C   UNL     1      16.970  55.671  13.263  1.00  0.00     0.006 A 
ATOM     30  C   UNL     1      14.457  55.605  13.142  1.00  0.00     0.006 A 
ATOM     31  C   UNL     1      15.703  56.327  12.945  1.00  0.00    -0.034 A 
BRANCH  31  32
ATOM     32  C   UNL     1      15.619  57.773  12.420  1.00  0.00     0.120 C 
BRANCH  32  33
ATOM     33  N   UNL     1      14.346  58.515  12.664  1.00  0.00    -0.288 NA
ATOM     34  C   UNL     1      14.632  59.897  13.200  1.00  0.00     0.146 C 
ATOM     35  C   UNL     1      13.484  58.608  11.402  1.00  0.00     0.146 C 
ATOM     36  C   UNL     1      13.319  60.680  13.480  1.00  0.00     0.277 C 
ATOM     37  C   UNL     1      12.147  59.368  11.681  1.00  0.00     0.277 C 
ATOM     38  N   UNL     1      12.460  60.763  12.227  1.00  0.00    -0.335 N 
ATOM     39  C   UNL     1      11.206  61.501  12.435  1.00  0.00     0.332 C 
ATOM     40  H   UNL     1      13.018  61.288  11.538  1.00  0.00     0.347 HD
ENDBRANCH  32  33
ENDBRANCH  31  32
ENDBRANCH  23  26
ENDBRANCH   5  22
TORSDOF 7
ENDMDL
MODEL 4
REMARK VINA RESULT:   -10.932      3.756     12.282
REMARK INTER + INTRA:         -16.096
REMARK INTER:                 -15.889
REMARK INTRA:                  -0.207
REMARK UNBOUND:                -0.690
REMARK SMILES Cc1ccc(NC(=O)c2ccc(CN3CC[NH+](C)CC3)cc2)cc1Nc1nccc(-c2cccnc2)n1
REMARK SMILES IDX 24 1 2 2 3 3 4 4 5 5 23 6 1 7 25 8 26 10 30 11 29 12 37 13
REMARK SMILES IDX 28 14 27 15 31 16 33 17 32 18 34 19 35 20 36 21 6 22 7 23
REMARK SMILES IDX 8 25 9 26 10 27 22 28 11 29 21 30 12 31 13 32 14 33 15 34
REMARK SMILES IDX 20 35 16 36 19 37 17 38 18 39
REMARK H PARENT 25 9 6 24 17 40
REMARK Flexibility Score: inf
ROOT
ATOM      1  C   UNL     1      18.126  48.599  18.946  1.00  0.00     0.046 A 
ATOM      2  C   UNL     1      17.109  47.553  19.107  1.00  0.00    -0.027 A 
ATOM      3  C   UNL     1      15.981  47.561  18.221  1.00  0.00     0.008 A 
ATOM      4  C   UNL     1      15.856  48.572  17.200  1.00  0.00     0.026 A 
ATOM      5  C   UNL     1      16.843  49.587  17.038  1.00  0.00     0.043 A 
ATOM      6  C   UNL     1      17.988  49.585  17.935  1.00  0.00     0.052 A 
ATOM      7  C   UNL     1      17.195  46.441  20.179  1.00  0.00     0.046 C 
ENDROOT
BRANCH   1   8
ATOM      8  N   UNL     1      19.245  48.644  19.780  1.00  0.00    -0.324 N 
ATOM      9  H   UNL     1      19.136  48.926  20.765  1.00  0.00     0.170 HD
BRANCH   8  10
ATOM     10  C   UNL     1      20.503  48.316  19.297  1.00  0.00     0.227 A 
ATOM     11  C   UNL     1      22.610  49.084  18.494  1.00  0.00     0.077 A 
ATOM     12  C   UNL     1      23.054  47.734  18.298  1.00  0.00     0.049 A 
ATOM     13  N   UNL     1      21.347  49.322  18.989  1.00  0.00    -0.213 NA
ATOM     14  C   UNL     1      22.151  46.699  18.629  1.00  0.00     0.117 A 
ATOM     15  N   UNL     1      20.899  47.003  19.118  1.00  0.00    -0.221 NA
BRANCH  11  16
ATOM     16  C   UNL     1      23.448  50.286  18.188  1.00  0.00     0.019 A 
ATOM     17  C   UNL     1      24.995  51.614  16.702  1.00  0.00     0.021 A 
ATOM     18  C   UNL     1      24.201  50.432  16.949  1.00  0.00     0.013 A 
ATOM     19  C   UNL     1      25.023  52.640  17.711  1.00  0.00     0.111 A 
ATOM     20  N   UNL     1      24.292  52.489  18.899  1.00  0.00    -0.264 NA
ATOM     21  C   UNL     1      23.518  51.364  19.163  1.00  0.00     0.121 A 
ENDBRANCH  11  16
ENDBRANCH   8  10
ENDBRANCH   1   8
BRANCH   5  22
ATOM     22  N   UNL     1      16.653  50.558  15.989  1.00  0.00    -0.322 N 
ATOM     23  C   UNL     1      15.663  51.522  15.889  1.00  0.00     0.255 C 
ATOM     24  H   UNL     1      17.337  50.531  15.219  1.00  0.00     0.170 HD
ATOM     25  O   UNL     1      14.659  51.556  16.586  1.00  0.00    -0.269 OA
BRANCH  23  26
ATOM     26  C   UNL     1      15.800  52.594  14.857  1.00  0.00     0.040 A 
ATOM     27  C   UNL     1      14.811  53.668  14.741  1.00  0.00     0.014 A 
ATOM     28  C   UNL     1      16.930  52.555  13.953  1.00  0.00     0.014 A 
ATOM     29  C   UNL     1      14.958  54.680  13.725  1.00  0.00     0.006 A 
ATOM     30  C   UNL     1      17.072  53.550  12.959  1.00  0.00     0.006 A 
ATOM     31  C   UNL     1      16.102  54.624  12.818  1.00  0.00    -0.034 A 
BRANCH  31  32
ATOM     32  C   UNL     1      16.328  55.649  11.692  1.00  0.00     0.120 C 
BRANCH  32  33
ATOM     33  N   UNL     1      15.719  57.002  11.866  1.00  0.00    -0.288 NA
ATOM     34  C   UNL     1      14.225  56.892  12.043  1.00  0.00     0.146 C 
ATOM     35  C   UNL     1      16.334  57.761  13.046  1.00  0.00     0.146 C 
ATOM     36  C   UNL     1      13.569  58.292  12.206  1.00  0.00     0.277 C 
ATOM     37  C   UNL     1      15.702  59.182  13.200  1.00  0.00     0.277 C 
ATOM     38  N   UNL     1      14.188  59.048  13.373  1.00  0.00    -0.335 N 
ATOM     39  C   UNL     1      13.597  60.378  13.576  1.00  0.00     0.332 C 
ATOM     40  H   UNL     1      13.983  58.486  14.212  1.00  0.00     0.347 HD
ENDBRANCH  32  33
ENDBRANCH  31  32
ENDBRANCH  23  26
ENDBRANCH   5  22
TORSDOF 7
ENDMDL
MODEL 5
REMARK VINA RESULT:   -10.851      3.905     12.351
REMARK INTER + INTRA:         -15.981
REMARK INTER:                 -15.114
REMARK INTRA:                  -0.867
REMARK UNBOUND:                -0.690
REMARK SMILES Cc1ccc(NC(=O)c2ccc(CN3CC[NH+](C)CC3)cc2)cc1Nc1nccc(-c2cccnc2)n1
REMARK SMILES IDX 24 1 2 2 3 3 4 4 5 5 23 6 1 7 25 8 26 10 30 11 29 12 37 13
REMARK SMILES IDX 28 14 27 15 31 16 33 17 32 18 34 19 35 20 36 21 6 22 7 23
REMARK SMILES IDX 8 25 9 26 10 27 22 28 11 29 21 30 12 31 13 32 14 33 15 34
REMARK SMILES IDX 20 35 16 36 19 37 17 38 18 39
REMARK H PARENT 25 9 6 24 17 40
REMARK Flexibility Score: inf
ROOT
ATOM      1  C   UNL     1      18.490  48.559  19.030  1.00  0.00     0.046 A 
ATOM      2  C   UNL     1      17.518  47.477  19.232  1.00  0.00    -0.027 A 
ATOM      3  C   UNL     1      16.351  47.449  18.398  1.00  0.00     0.008 A 
ATOM      4  C   UNL     1      16.144  48.458  17.388  1.00  0.00     0.026 A 
ATOM      5  C   UNL     1      17.087  49.507  17.187  1.00  0.00     0.043 A 
ATOM      6  C   UNL     1      18.271  49.542  18.031  1.00  0.00     0.052 A 
ATOM      7  C   UNL     1      17.691  46.366  20.294  1.00  0.00     0.046 C 
ENDROOT
BRANCH   1   8
ATOM      8  N   UNL     1      19.644  48.640  19.812  1.00  0.00    -0.324 N 
ATOM      9  H   UNL     1      19.568  48.897  20.807  1.00  0.00     0.170 HD
BRANCH   8  10
ATOM     10  C   UNL     1      20.891  48.380  19.265  1.00  0.00     0.227 A 
ATOM     11  C   UNL     1      22.905  49.262  18.349  1.00  0.00     0.077 A 
ATOM     12  C   UNL     1      23.416  47.939  18.136  1.00  0.00     0.049 A 
ATOM     13  N   UNL     1      21.658  49.431  18.909  1.00  0.00    -0.213 NA
ATOM     14  C   UNL     1      22.592  46.856  18.519  1.00  0.00     0.117 A 
ATOM     15  N   UNL     1      21.352  47.091  19.072  1.00  0.00    -0.221 NA
BRANCH  11  16
ATOM     16  C   UNL     1      23.655  50.508  17.993  1.00  0.00     0.019 A 
ATOM     17  C   UNL     1      25.163  51.857  16.486  1.00  0.00     0.021 A 
ATOM     18  C   UNL     1      24.459  50.631  16.783  1.00  0.00     0.013 A 
ATOM     19  C   UNL     1      25.053  52.950  17.416  1.00  0.00     0.111 A 
ATOM     20  N   UNL     1      24.275  52.820  18.576  1.00  0.00    -0.264 NA
ATOM     21  C   UNL     1      23.584  51.653  18.888  1.00  0.00     0.121 A 
ENDBRANCH  11  16
ENDBRANCH   8  10
ENDBRANCH   1   8
BRANCH   5  22
ATOM     22  N   UNL     1      16.816  50.474  16.152  1.00  0.00    -0.322 N 
ATOM     23  C   UNL     1      15.694  51.272  16.004  1.00  0.00     0.255 C 
ATOM     24  H   UNL     1      17.547  50.585  15.434  1.00  0.00     0.170 HD
ATOM     25  O   UNL     1      14.652  51.121  16.626  1.00  0.00    -0.269 OA
BRANCH  23  26
ATOM     26  C   UNL     1      15.727  52.390  15.013  1.00  0.00     0.040 A 
ATOM     27  C   UNL     1      16.669  52.383  13.891  1.00  0.00     0.014 A 
ATOM     28  C   UNL     1      14.816  53.502  15.180  1.00  0.00     0.014 A 
ATOM     29  C   UNL     1      16.693  53.482  12.959  1.00  0.00     0.006 A 
ATOM     30  C   UNL     1      14.841  54.578  14.264  1.00  0.00     0.006 A 
ATOM     31  C   UNL     1      15.769  54.599  13.146  1.00  0.00    -0.034 A 
BRANCH  31  32
ATOM     32  C   UNL     1      15.738  55.824  12.212  1.00  0.00     0.120 C 
BRANCH  32  33
ATOM     33  N   UNL     1      15.041  57.046  12.712  1.00  0.00    -0.288 NA
ATOM     34  C   UNL     1      15.987  58.221  12.743  1.00  0.00     0.146 C 
ATOM     35  C   UNL     1      13.807  57.387  11.872  1.00  0.00     0.146 C 
ATOM     36  C   UNL     1      15.286  59.500  13.280  1.00  0.00     0.277 C 
ATOM     37  C   UNL     1      13.077  58.656  12.422  1.00  0.00     0.277 C 
ATOM     38  N   UNL     1      14.055  59.832  12.449  1.00  0.00    -0.335 N 
ATOM     39  C   UNL     1      13.356  61.040  12.911  1.00  0.00     0.332 C 
ATOM     40  H   UNL     1      14.400  60.018  11.497  1.00  0.00     0.347 HD
ENDBRANCH  32  33
ENDBRANCH  31  32
ENDBRANCH  23  26
ENDBRANCH   5  22
TORSDOF 7
ENDMDL
